
Spectre (R) Circuit Simulator
Version 17.1.0.627.isr15 64bit -- 9 May 2019
Copyright (C) 1989-2018 Cadence Design Systems, Inc. All rights reserved
        worldwide. Cadence and Spectre are registered trademarks of Cadence
        Design Systems, Inc. All others are the property of their respective
        holders.

Includes RSA BSAFE(R) Cryptographic or Security Protocol Software from RSA
        Security, Inc.

User: dgarci23   Host: student06.cse.nd.edu   HostID: 4A815798   PID: 20902
Memory  available: 26.8814 GB  physical: 33.6336 GB
sh: lsb_release: command not found
CPU Type: Quad-Core AMD Opteron(tm) Processor 2356
All processors running at 2300.0 MHz
        Socket: Processors
        0:       0,  1,  2,  3
        1:       4,  5,  6,  7
        
System load averages (1min, 5min, 15min) : 0.5 %, 0.5 %, 1.0 %


Simulating `si.inp' on student06.cse.nd.edu at 10:10:29 PM, Mon Apr 17, 2023
        (process id: 20902).
Current working directory:
        /escnfs/courses/fa22-cse-40462.01/dropbox/dgarci23/mips8/spectre.lab2.inv
Command line:
     \
        /escnfs/home/csesoft/cadence/installs/SPECTRE171/tools.lnx86/bin/spectre
        \
        -64 si.inp
Reading file: 
        /escnfs/courses/fa22-cse-40462.01/dropbox/dgarci23/mips8/spectre.lab2.inv/si.inp
Reading file: 
        /escnfs/home/csesoft/cadence/installs/SPECTRE171/tools.lnx86/spectre/etc/configs/mapsubckt.cfg
Reading file: 
        /escnfs/home/csesoft/cadence/installs/SPECTRE171/tools.lnx86/spectre/etc/configs/spectre.cfg
Reading file:  /usr/include/stdc-predef.h
Reading file: 
        /escnfs/home/csesoft/cadence/installs/NCSU/ncsu-cdk-1.6.0.beta/models/spectre/standalone/ami06N.m
Reading file: 
        /escnfs/home/csesoft/cadence/installs/NCSU/ncsu-cdk-1.6.0.beta/models/spectre/standalone/ami06P.m
Time for NDB Parsing: CPU = 144.704 ms, elapsed = 169.153 ms.
Time accumulated: CPU = 205.945 ms, elapsed = 169.165 ms.
Peak resident memory used = 53.4 Mbytes.

Time for Elaboration: CPU = 40.654 ms, elapsed = 40.668 ms.
Time accumulated: CPU = 246.852 ms, elapsed = 210.084 ms.
Peak resident memory used = 60.5 Mbytes.


Time for EDB Visiting: CPU = 1.304 ms, elapsed = 1.30606 ms.
Time accumulated: CPU = 248.459 ms, elapsed = 211.688 ms.
Peak resident memory used = 61.2 Mbytes.


Fatal error found by spectre during topology check.
    FATAL: The following branches form a loop of rigid branches (shorts) when
        added to the circuit:
        vdd:p (from vdd! to 0)


Aggregate audit (10:10:29 PM, Mon Apr 17, 2023):
Time used: CPU = 250 ms, elapsed = 250 ms, util. = 100%.
Time spent in licensing: elapsed = 16.2 ms, percentage of total = 6.47%.
Peak memory used = 61.9 Mbytes.
Simulation started at: 10:10:29 PM, Mon Apr 17, 2023, ended at: 10:10:29 PM,
        Mon Apr 17, 2023, with elapsed time (wall clock): 250 ms.
spectre completes with 1 error, 0 warnings, and 0 notices.
spectre terminated prematurely due to fatal error.
